***************************************************************************************************************************************
*SRC=1N4007G;DI_1N4007G;Diodes;Si;  1.00kV  1.00A  2.00us   Diodes Inc. Glass Passivated Rectifier
.MODEL DI_1N4007G D  ( IS=65.4p RS=42.2m BV=1.00k IBV=5.00u
+ CJO=14.8p  M=0.333 N=1.36 TT=2.88u )
**************************************************************************************************************************************